<?xml version="1.0" encoding="UTF-8"?>

<!-- generated on 2026-03-09T11:05:53.241332-07:00 by Eclipse SUMO netedit 1.26.0
<neteditConfiguration xmlns:xsi="http://www.w3.org/2001/XMLSchema-instance" xsi:noNamespaceSchemaLocation="http://sumo.dlr.de/xsd/neteditConfiguration.xsd">

    <input>
        <sumo-net-file value="maps/prueba1.net.xml"/>
    </input>

    <output>
        <output-file value="maps/prueba1.net.xml"/>
    </output>

    <processing>
        <geometry.min-radius.fix.railways value="false"/>
        <geometry.avoid-overlap value="false"/>
        <geometry.max-grade.fix value="false"/>
        <offset.disable-normalization value="true"/>
        <lefthand value="0"/>
    </processing>

    <junctions>
        <no-turnarounds value="true"/>
        <junctions.corner-detail value="5"/>
        <junctions.limit-turn-speed value="5.50"/>
        <rectangular-lane-cut value="0"/>
    </junctions>

    <pedestrian>
        <walkingareas value="0"/>
    </pedestrian>

</neteditConfiguration>
-->

<net version="1.20" junctionCornerDetail="5" limitTurnSpeed="5.50" avoidOverlap="0" xmlns:xsi="http://www.w3.org/2001/XMLSchema-instance" xsi:noNamespaceSchemaLocation="http://sumo.dlr.de/xsd/net_file.xsd">

    <location netOffset="0.00,0.00" convBoundary="-201.88,-102.96,85.12,141.95" origBoundary="-10000000000.00,-10000000000.00,10000000000.00,10000000000.00" projParameter="!"/>

    <edge id=":J0_0" function="internal">
        <lane id=":J0_0_0" index="0" speed="6.63" length="9.34" shape="-55.26,19.54 -57.80,19.91 -59.62,20.99 -60.72,22.80 -61.09,25.32"/>
    </edge>
    <edge id=":J0_1" function="internal">
        <lane id=":J0_1_0" index="0" speed="15.28" length="27.41" shape="-55.26,19.54 -82.68,19.64"/>
        <lane id=":J0_1_1" index="1" speed="15.28" length="27.41" shape="-55.28,16.34 -82.69,16.44"/>
        <lane id=":J0_1_2" index="2" speed="15.28" length="27.41" shape="-55.29,13.14 -82.70,13.24"/>
    </edge>
    <edge id=":J0_4" function="internal">
        <lane id=":J0_4_0" index="0" speed="10.34" length="24.66" shape="-55.29,13.14 -61.99,12.20 -66.76,9.34 -69.60,4.56 -70.50,-2.15"/>
    </edge>
    <edge id=":J0_5" function="internal">
        <lane id=":J0_5_0" index="0" speed="6.48" length="9.03" shape="-60.90,-2.06 -60.57,0.39 -59.53,2.15 -57.78,3.19 -55.33,3.54"/>
    </edge>
    <edge id=":J0_6" function="internal">
        <lane id=":J0_6_0" index="0" speed="16.67" length="27.39" shape="-60.90,-2.06 -61.09,25.32"/>
        <lane id=":J0_6_1" index="1" speed="16.67" length="27.39" shape="-64.10,-2.09 -64.29,25.30"/>
        <lane id=":J0_6_2" index="2" speed="16.67" length="27.39" shape="-67.30,-2.12 -67.49,25.28"/>
    </edge>
    <edge id=":J0_9" function="internal">
        <lane id=":J0_9_0" index="0" speed="10.46" length="24.74" shape="-67.30,-2.12 -68.31,4.58 -71.22,9.37 -76.01,12.26 -82.70,13.24"/>
    </edge>
    <edge id=":J0_10" function="internal">
        <lane id=":J0_10_0" index="0" speed="6.65" length="9.40" shape="-82.73,3.64 -80.20,3.27 -78.38,2.17 -77.28,0.34 -76.90,-2.21"/>
    </edge>
    <edge id=":J0_11" function="internal">
        <lane id=":J0_11_0" index="0" speed="16.67" length="27.41" shape="-82.73,3.64 -55.33,3.54"/>
        <lane id=":J0_11_1" index="1" speed="16.67" length="27.41" shape="-82.72,6.84 -55.31,6.74"/>
        <lane id=":J0_11_2" index="2" speed="16.67" length="27.41" shape="-82.71,10.04 -55.30,9.94"/>
    </edge>
    <edge id=":J0_14" function="internal">
        <lane id=":J0_14_0" index="0" speed="10.35" length="24.61" shape="-82.71,10.04 -76.02,10.97 -71.26,13.82 -68.41,18.59 -67.49,25.28"/>
    </edge>
    <edge id=":J0_15" function="internal">
        <lane id=":J0_15_0" index="0" speed="6.49" length="9.03" shape="-77.09,25.23 -77.43,22.78 -78.47,21.03 -80.22,19.98 -82.68,19.64"/>
    </edge>
    <edge id=":J0_16" function="internal">
        <lane id=":J0_16_0" index="0" speed="16.67" length="27.43" shape="-77.09,25.23 -76.90,-2.21"/>
        <lane id=":J0_16_1" index="1" speed="16.67" length="27.43" shape="-73.89,25.25 -73.70,-2.18"/>
        <lane id=":J0_16_2" index="2" speed="16.67" length="27.43" shape="-70.69,25.27 -70.50,-2.15"/>
    </edge>
    <edge id=":J0_19" function="internal">
        <lane id=":J0_19_0" index="0" speed="10.44" length="24.72" shape="-70.69,25.27 -69.70,18.58 -66.80,13.80 -62.00,10.92 -55.30,9.94"/>
    </edge>

    <edge id="-E0" from="J1" to="J0" priority="-1">
        <lane id="-E0_0" index="0" speed="16.67" length="100.83" shape="-59.98,-102.89 -60.90,-2.06"/>
        <lane id="-E0_1" index="1" speed="16.67" length="100.83" shape="-63.18,-102.92 -64.10,-2.09"/>
        <lane id="-E0_2" index="2" speed="16.67" length="100.83" shape="-66.38,-102.95 -67.30,-2.12"/>
    </edge>
    <edge id="-E1" from="J2" to="J0" priority="-1">
        <lane id="-E1_0" index="0" speed="16.67" length="116.68" shape="-77.70,141.91 -77.09,25.23"/>
        <lane id="-E1_1" index="1" speed="16.67" length="116.68" shape="-74.50,141.92 -73.89,25.25"/>
        <lane id="-E1_2" index="2" speed="16.67" length="116.68" shape="-71.30,141.94 -70.69,25.27"/>
    </edge>
    <edge id="-E2" from="J0" to="J3" priority="-1">
        <lane id="-E2_0" index="0" speed="13.89" length="119.18" shape="-82.68,19.64 -201.85,20.07"/>
        <lane id="-E2_1" index="1" speed="13.89" length="119.18" shape="-82.69,16.44 -201.86,16.87"/>
        <lane id="-E2_2" index="2" speed="13.89" length="119.18" shape="-82.70,13.24 -201.87,13.67"/>
    </edge>
    <edge id="-E3" from="J4" to="J0" priority="-1">
        <lane id="-E3_0" index="0" speed="16.67" length="140.42" shape="85.15,18.98 -55.26,19.54"/>
        <lane id="-E3_1" index="1" speed="16.67" length="140.42" shape="85.14,15.78 -55.28,16.34"/>
        <lane id="-E3_2" index="2" speed="16.67" length="140.42" shape="85.13,12.58 -55.29,13.14"/>
    </edge>
    <edge id="E0" from="J0" to="J1" priority="-1">
        <lane id="E0_0" index="0" speed="16.67" length="100.83" shape="-76.90,-2.21 -75.98,-103.03"/>
        <lane id="E0_1" index="1" speed="16.67" length="100.83" shape="-73.70,-2.18 -72.78,-103.00"/>
        <lane id="E0_2" index="2" speed="16.67" length="100.83" shape="-70.50,-2.15 -69.58,-102.97"/>
    </edge>
    <edge id="E1" from="J0" to="J2" priority="-1">
        <lane id="E1_0" index="0" speed="16.67" length="116.68" shape="-61.09,25.32 -61.70,141.99"/>
        <lane id="E1_1" index="1" speed="16.67" length="116.68" shape="-64.29,25.30 -64.90,141.98"/>
        <lane id="E1_2" index="2" speed="16.67" length="116.68" shape="-67.49,25.28 -68.10,141.96"/>
    </edge>
    <edge id="E2" from="J3" to="J0" priority="-1">
        <lane id="E2_0" index="0" speed="16.67" length="119.18" shape="-201.91,4.07 -82.73,3.64"/>
        <lane id="E2_1" index="1" speed="16.67" length="119.18" shape="-201.90,7.27 -82.72,6.84"/>
        <lane id="E2_2" index="2" speed="16.67" length="119.18" shape="-201.89,10.47 -82.71,10.04"/>
    </edge>
    <edge id="E3" from="J0" to="J4" priority="-1">
        <lane id="E3_0" index="0" speed="16.67" length="140.42" shape="-55.33,3.54 85.09,2.98"/>
        <lane id="E3_1" index="1" speed="16.67" length="140.42" shape="-55.31,6.74 85.10,6.18"/>
        <lane id="E3_2" index="2" speed="16.67" length="140.42" shape="-55.30,9.94 85.11,9.38"/>
    </edge>

    <tlLogic id="J0" type="static" programID="0" offset="0">
        <phase duration="30" state="GGGGGrrrrrrrrrrrrrrr"/>
        <phase duration="30" state="rrrrrGGGGGrrrrrrrrrr"/>
        <phase duration="30" state="rrrrrrrrrrGGGGGrrrrr"/>
        <phase duration="30" state="rrrrrrrrrrrrrrrGGGGG"/>
    </tlLogic>

    <junction id="J0" type="traffic_light" x="-69.02" y="11.59" incLanes="-E3_0 -E3_1 -E3_2 -E0_0 -E0_1 -E0_2 E2_0 E2_1 E2_2 -E1_0 -E1_1 -E1_2" intLanes=":J0_0_0 :J0_1_0 :J0_1_1 :J0_1_2 :J0_4_0 :J0_5_0 :J0_6_0 :J0_6_1 :J0_6_2 :J0_9_0 :J0_10_0 :J0_11_0 :J0_11_1 :J0_11_2 :J0_14_0 :J0_15_0 :J0_16_0 :J0_16_1 :J0_16_2 :J0_19_0" shape="-55.26,21.14 -55.33,1.94 -57.55,1.50 -58.32,0.95 -58.87,0.17 -59.20,-0.83 -59.30,-2.05 -78.49,-2.22 -78.98,0.14 -79.58,0.97 -80.40,1.56 -81.45,1.92 -82.74,2.04 -82.67,21.24 -80.45,21.68 -79.68,22.23 -79.12,23.00 -78.80,24.00 -78.69,25.22 -59.49,25.33 -59.01,23.00 -58.42,22.19 -57.60,21.61 -56.54,21.26">
        <request index="0"  response="00000000000000000000" foes="00000000000111000000" cont="0"/>
        <request index="1"  response="00000000000000000000" foes="11111100001111000000" cont="0"/>
        <request index="2"  response="00000000000000000000" foes="11111100001111000000" cont="0"/>
        <request index="3"  response="00000000000000000000" foes="11111100001111000000" cont="0"/>
        <request index="4"  response="00000011100000000000" foes="11110011101111000000" cont="0"/>
        <request index="5"  response="00000011100000000000" foes="00000011100000000000" cont="0"/>
        <request index="6"  response="00000111100000011111" foes="10000111100000011111" cont="0"/>
        <request index="7"  response="00000111100000011111" foes="10000111100000011111" cont="0"/>
        <request index="8"  response="00000111100000011111" foes="10000111100000011111" cont="0"/>
        <request index="9"  response="01110111100000011110" foes="01110111100000011110" cont="0"/>
        <request index="10" response="00000000000000000000" foes="01110000000000000000" cont="0"/>
        <request index="11" response="00000000000000000000" foes="11110000001111110000" cont="0"/>
        <request index="12" response="00000000000000000000" foes="11110000001111110000" cont="0"/>
        <request index="13" response="00000000000000000000" foes="11110000001111110000" cont="0"/>
        <request index="14" response="00000000000000001110" foes="11110000001111001110" cont="0"/>
        <request index="15" response="00000000000000001110" foes="00000000000000001110" cont="0"/>
        <request index="16" response="00000111110000011110" foes="00000111111000011110" cont="0"/>
        <request index="17" response="00000111110000011110" foes="00000111111000011110" cont="0"/>
        <request index="18" response="00000111110000011110" foes="00000111111000011110" cont="0"/>
        <request index="19" response="00000111100111011110" foes="00000111100111011110" cont="0"/>
    </junction>
    <junction id="J1" type="dead_end" x="-67.98" y="-102.96" incLanes="E0_0 E0_1 E0_2" intLanes="" shape="-67.98,-102.96 -77.58,-103.05 -67.98,-102.96"/>
    <junction id="J2" type="dead_end" x="-69.70" y="141.95" incLanes="E1_0 E1_1 E1_2" intLanes="" shape="-69.70,141.95 -60.10,142.00 -69.70,141.95"/>
    <junction id="J3" type="dead_end" x="-201.88" y="12.07" incLanes="-E2_0 -E2_1 -E2_2" intLanes="" shape="-201.88,12.07 -201.85,21.67 -201.88,12.07"/>
    <junction id="J4" type="dead_end" x="85.12" y="10.98" incLanes="E3_0 E3_1 E3_2" intLanes="" shape="85.12,10.98 85.08,1.38 85.12,10.98"/>

    <connection from="-E0" to="E3" fromLane="0" toLane="0" via=":J0_5_0" tl="J0" linkIndex="5" dir="r" state="o"/>
    <connection from="-E0" to="E1" fromLane="0" toLane="0" via=":J0_6_0" tl="J0" linkIndex="6" dir="s" state="o"/>
    <connection from="-E0" to="E1" fromLane="1" toLane="1" via=":J0_6_1" tl="J0" linkIndex="7" dir="s" state="o"/>
    <connection from="-E0" to="E1" fromLane="2" toLane="2" via=":J0_6_2" tl="J0" linkIndex="8" dir="s" state="o"/>
    <connection from="-E0" to="-E2" fromLane="2" toLane="2" via=":J0_9_0" tl="J0" linkIndex="9" dir="l" state="o"/>
    <connection from="-E1" to="-E2" fromLane="0" toLane="0" via=":J0_15_0" tl="J0" linkIndex="15" dir="r" state="o"/>
    <connection from="-E1" to="E0" fromLane="0" toLane="0" via=":J0_16_0" tl="J0" linkIndex="16" dir="s" state="o"/>
    <connection from="-E1" to="E0" fromLane="1" toLane="1" via=":J0_16_1" tl="J0" linkIndex="17" dir="s" state="o"/>
    <connection from="-E1" to="E0" fromLane="2" toLane="2" via=":J0_16_2" tl="J0" linkIndex="18" dir="s" state="o"/>
    <connection from="-E1" to="E3" fromLane="2" toLane="2" via=":J0_19_0" tl="J0" linkIndex="19" dir="l" state="o"/>
    <connection from="-E3" to="E1" fromLane="0" toLane="0" via=":J0_0_0" tl="J0" linkIndex="0" dir="r" state="O"/>
    <connection from="-E3" to="-E2" fromLane="0" toLane="0" via=":J0_1_0" tl="J0" linkIndex="1" dir="s" state="O"/>
    <connection from="-E3" to="-E2" fromLane="1" toLane="1" via=":J0_1_1" tl="J0" linkIndex="2" dir="s" state="O"/>
    <connection from="-E3" to="-E2" fromLane="2" toLane="2" via=":J0_1_2" tl="J0" linkIndex="3" dir="s" state="O"/>
    <connection from="-E3" to="E0" fromLane="2" toLane="2" via=":J0_4_0" tl="J0" linkIndex="4" dir="l" state="o"/>
    <connection from="E2" to="E0" fromLane="0" toLane="0" via=":J0_10_0" tl="J0" linkIndex="10" dir="r" state="O"/>
    <connection from="E2" to="E3" fromLane="0" toLane="0" via=":J0_11_0" tl="J0" linkIndex="11" dir="s" state="O"/>
    <connection from="E2" to="E3" fromLane="1" toLane="1" via=":J0_11_1" tl="J0" linkIndex="12" dir="s" state="O"/>
    <connection from="E2" to="E3" fromLane="2" toLane="2" via=":J0_11_2" tl="J0" linkIndex="13" dir="s" state="O"/>
    <connection from="E2" to="E1" fromLane="2" toLane="2" via=":J0_14_0" tl="J0" linkIndex="14" dir="l" state="o"/>

    <connection from=":J0_0" to="E1" fromLane="0" toLane="0" dir="r" state="M"/>
    <connection from=":J0_1" to="-E2" fromLane="0" toLane="0" dir="s" state="M"/>
    <connection from=":J0_1" to="-E2" fromLane="1" toLane="1" dir="s" state="M"/>
    <connection from=":J0_1" to="-E2" fromLane="2" toLane="2" dir="s" state="M"/>
    <connection from=":J0_4" to="E0" fromLane="0" toLane="2" dir="l" state="M"/>
    <connection from=":J0_5" to="E3" fromLane="0" toLane="0" dir="r" state="M"/>
    <connection from=":J0_6" to="E1" fromLane="0" toLane="0" dir="s" state="M"/>
    <connection from=":J0_6" to="E1" fromLane="1" toLane="1" dir="s" state="M"/>
    <connection from=":J0_6" to="E1" fromLane="2" toLane="2" dir="s" state="M"/>
    <connection from=":J0_9" to="-E2" fromLane="0" toLane="2" dir="l" state="M"/>
    <connection from=":J0_10" to="E0" fromLane="0" toLane="0" dir="r" state="M"/>
    <connection from=":J0_11" to="E3" fromLane="0" toLane="0" dir="s" state="M"/>
    <connection from=":J0_11" to="E3" fromLane="1" toLane="1" dir="s" state="M"/>
    <connection from=":J0_11" to="E3" fromLane="2" toLane="2" dir="s" state="M"/>
    <connection from=":J0_14" to="E1" fromLane="0" toLane="2" dir="l" state="M"/>
    <connection from=":J0_15" to="-E2" fromLane="0" toLane="0" dir="r" state="M"/>
    <connection from=":J0_16" to="E0" fromLane="0" toLane="0" dir="s" state="M"/>
    <connection from=":J0_16" to="E0" fromLane="1" toLane="1" dir="s" state="M"/>
    <connection from=":J0_16" to="E0" fromLane="2" toLane="2" dir="s" state="M"/>
    <connection from=":J0_19" to="E3" fromLane="0" toLane="2" dir="l" state="M"/>

</net>
