<?xml version="1.0" encoding="utf-8"?>
<!-- generated on 2026-03-12T14:28:02.379101-07:00 by Eclipse SUMO duarouter 1.26.0
<duarouterConfiguration xmlns:xsi="http://www.w3.org/2001/XMLSchema-instance" xsi:noNamespaceSchemaLocation="http://sumo.dlr.de/xsd/duarouterConfiguration.xsd">

    <input>
        <net-file value="maps/prueba1.net.xml"/>
        <route-files value="maps/prueba1MoreTraffic3.trips.xml"/>
    </input>

    <output>
        <output-file value="maps/prueba1MoreTraffic3.rou.xml"/>
    </output>

    <time>
        <begin value="0"/>
        <end value="3600"/>
    </time>

    <report>
        <no-warnings value="true"/>
        <ignore-errors value="true"/>
        <no-step-log value="true"/>
    </report>

</duarouterConfiguration>
-->
<routes xmlns:xsi="http://www.w3.org/2001/XMLSchema-instance" xsi:noNamespaceSchemaLocation="http://sumo.dlr.de/xsd/routes_file.xsd">
    <vehicle id="0" depart="0.00">
        <route edges="-E3 -E2" />
    </vehicle>
    <vehicle id="1" depart="1.50">
        <route edges="-E1 -E2" />
    </vehicle>
    <vehicle id="2" depart="3.00">
        <route edges="-E3 E1" />
    </vehicle>
    <vehicle id="4" depart="6.00">
        <route edges="-E1 -E2" />
    </vehicle>
    <vehicle id="5" depart="7.50">
        <route edges="-E0 E1" />
    </vehicle>
    <vehicle id="7" depart="10.50">
        <route edges="-E3 E1" />
    </vehicle>
    <vehicle id="10" depart="15.00">
        <route edges="E2 E1" />
    </vehicle>
    <vehicle id="11" depart="16.50">
        <route edges="-E1 -E2" />
    </vehicle>
    <vehicle id="12" depart="18.00">
        <route edges="E2 E0" />
    </vehicle>
    <vehicle id="14" depart="21.00">
        <route edges="E2 E1" />
    </vehicle>
    <vehicle id="15" depart="22.50">
        <route edges="E2 E1" />
    </vehicle>
    <vehicle id="18" depart="27.00">
        <route edges="E2 E1" />
    </vehicle>
    <vehicle id="19" depart="28.50">
        <route edges="E2 E1" />
    </vehicle>
    <vehicle id="20" depart="30.00">
        <route edges="-E3 -E2" />
    </vehicle>
    <vehicle id="24" depart="36.00">
        <route edges="-E3 E0" />
    </vehicle>
    <vehicle id="25" depart="37.50">
        <route edges="-E1 -E2" />
    </vehicle>
    <vehicle id="26" depart="39.00">
        <route edges="-E1 E3" />
    </vehicle>
    <vehicle id="27" depart="40.50">
        <route edges="-E3 E1" />
    </vehicle>
    <vehicle id="30" depart="45.00">
        <route edges="E2 E1" />
    </vehicle>
    <vehicle id="31" depart="46.50">
        <route edges="-E3 E1" />
    </vehicle>
    <vehicle id="32" depart="48.00">
        <route edges="E2 E3" />
    </vehicle>
    <vehicle id="34" depart="51.00">
        <route edges="-E1 E0" />
    </vehicle>
    <vehicle id="36" depart="54.00">
        <route edges="E2 E0" />
    </vehicle>
    <vehicle id="37" depart="55.50">
        <route edges="-E3 E0" />
    </vehicle>
    <vehicle id="38" depart="57.00">
        <route edges="E2 E0" />
    </vehicle>
    <vehicle id="39" depart="58.50">
        <route edges="-E1 -E2" />
    </vehicle>
    <vehicle id="40" depart="60.00">
        <route edges="-E3 E0" />
    </vehicle>
    <vehicle id="42" depart="63.00">
        <route edges="-E1 -E2" />
    </vehicle>
    <vehicle id="43" depart="64.50">
        <route edges="E2 E1" />
    </vehicle>
    <vehicle id="46" depart="69.00">
        <route edges="E2 E0" />
    </vehicle>
    <vehicle id="48" depart="72.00">
        <route edges="E2 E1" />
    </vehicle>
    <vehicle id="49" depart="73.50">
        <route edges="E2 E3" />
    </vehicle>
    <vehicle id="51" depart="76.50">
        <route edges="-E3 E1" />
    </vehicle>
    <vehicle id="54" depart="81.00">
        <route edges="-E1 E3" />
    </vehicle>
    <vehicle id="55" depart="82.50">
        <route edges="E2 E0" />
    </vehicle>
    <vehicle id="56" depart="84.00">
        <route edges="-E3 -E2" />
    </vehicle>
    <vehicle id="57" depart="85.50">
        <route edges="E2 E3" />
    </vehicle>
    <vehicle id="59" depart="88.50">
        <route edges="-E3 -E2" />
    </vehicle>
    <vehicle id="60" depart="90.00">
        <route edges="E2 E1" />
    </vehicle>
    <vehicle id="61" depart="91.50">
        <route edges="E2 E1" />
    </vehicle>
    <vehicle id="64" depart="96.00">
        <route edges="E2 E3" />
    </vehicle>
    <vehicle id="65" depart="97.50">
        <route edges="-E1 -E2" />
    </vehicle>
    <vehicle id="66" depart="99.00">
        <route edges="E2 E3" />
    </vehicle>
    <vehicle id="71" depart="106.50">
        <route edges="-E1 E3" />
    </vehicle>
    <vehicle id="72" depart="108.00">
        <route edges="-E1 -E2" />
    </vehicle>
    <vehicle id="73" depart="109.50">
        <route edges="-E3 E1" />
    </vehicle>
    <vehicle id="75" depart="112.50">
        <route edges="E2 E1" />
    </vehicle>
    <vehicle id="85" depart="127.50">
        <route edges="E2 E1" />
    </vehicle>
    <vehicle id="86" depart="129.00">
        <route edges="-E1 E3" />
    </vehicle>
    <vehicle id="89" depart="133.50">
        <route edges="-E1 E0" />
    </vehicle>
    <vehicle id="90" depart="135.00">
        <route edges="-E3 E1" />
    </vehicle>
    <vehicle id="92" depart="138.00">
        <route edges="-E1 E0" />
    </vehicle>
    <vehicle id="95" depart="142.50">
        <route edges="-E1 E0" />
    </vehicle>
    <vehicle id="97" depart="145.50">
        <route edges="-E1 E3" />
    </vehicle>
    <vehicle id="98" depart="147.00">
        <route edges="-E3 -E2" />
    </vehicle>
    <vehicle id="99" depart="148.50">
        <route edges="E2 E3" />
    </vehicle>
    <vehicle id="100" depart="150.00">
        <route edges="E2 E3" />
    </vehicle>
    <vehicle id="102" depart="153.00">
        <route edges="-E1 -E2" />
    </vehicle>
    <vehicle id="103" depart="154.50">
        <route edges="-E1 -E2" />
    </vehicle>
    <vehicle id="104" depart="156.00">
        <route edges="-E1 E3" />
    </vehicle>
    <vehicle id="105" depart="157.50">
        <route edges="-E1 E3" />
    </vehicle>
    <vehicle id="106" depart="159.00">
        <route edges="-E1 E0" />
    </vehicle>
    <vehicle id="107" depart="160.50">
        <route edges="E2 E3" />
    </vehicle>
    <vehicle id="108" depart="162.00">
        <route edges="-E3 E1" />
    </vehicle>
    <vehicle id="110" depart="165.00">
        <route edges="E2 E1" />
    </vehicle>
    <vehicle id="111" depart="166.50">
        <route edges="-E3 E1" />
    </vehicle>
    <vehicle id="116" depart="174.00">
        <route edges="-E3 E1" />
    </vehicle>
    <vehicle id="119" depart="178.50">
        <route edges="-E3 E1" />
    </vehicle>
    <vehicle id="124" depart="186.00">
        <route edges="-E3 E0" />
    </vehicle>
    <vehicle id="125" depart="187.50">
        <route edges="-E1 E3" />
    </vehicle>
    <vehicle id="127" depart="190.50">
        <route edges="E2 E3" />
    </vehicle>
    <vehicle id="128" depart="192.00">
        <route edges="-E0 -E2" />
    </vehicle>
    <vehicle id="129" depart="193.50">
        <route edges="-E1 E3" />
    </vehicle>
    <vehicle id="130" depart="195.00">
        <route edges="E2 E3" />
    </vehicle>
    <vehicle id="131" depart="196.50">
        <route edges="-E1 -E2" />
    </vehicle>
    <vehicle id="132" depart="198.00">
        <route edges="E2 E1" />
    </vehicle>
    <vehicle id="134" depart="201.00">
        <route edges="-E3 -E2" />
    </vehicle>
    <vehicle id="135" depart="202.50">
        <route edges="E2 E0" />
    </vehicle>
    <vehicle id="140" depart="210.00">
        <route edges="-E3 -E2" />
    </vehicle>
    <vehicle id="141" depart="211.50">
        <route edges="-E3 E0" />
    </vehicle>
    <vehicle id="142" depart="213.00">
        <route edges="-E1 E3" />
    </vehicle>
    <vehicle id="144" depart="216.00">
        <route edges="-E1 E0" />
    </vehicle>
    <vehicle id="146" depart="219.00">
        <route edges="-E3 E0" />
    </vehicle>
    <vehicle id="147" depart="220.50">
        <route edges="-E3 E1" />
    </vehicle>
    <vehicle id="148" depart="222.00">
        <route edges="-E1 -E2" />
    </vehicle>
    <vehicle id="150" depart="225.00">
        <route edges="E2 E1" />
    </vehicle>
    <vehicle id="151" depart="226.50">
        <route edges="E2 E1" />
    </vehicle>
    <vehicle id="153" depart="229.50">
        <route edges="-E1 E3" />
    </vehicle>
    <vehicle id="154" depart="231.00">
        <route edges="E2 E3" />
    </vehicle>
    <vehicle id="157" depart="235.50">
        <route edges="E2 E3" />
    </vehicle>
    <vehicle id="160" depart="240.00">
        <route edges="E2 E3" />
    </vehicle>
    <vehicle id="161" depart="241.50">
        <route edges="E2 E3" />
    </vehicle>
    <vehicle id="163" depart="244.50">
        <route edges="-E1 E3" />
    </vehicle>
    <vehicle id="164" depart="246.00">
        <route edges="E2 E3" />
    </vehicle>
    <vehicle id="165" depart="247.50">
        <route edges="E2 E0" />
    </vehicle>
    <vehicle id="167" depart="250.50">
        <route edges="E2 E3" />
    </vehicle>
    <vehicle id="169" depart="253.50">
        <route edges="-E1 E0" />
    </vehicle>
    <vehicle id="172" depart="258.00">
        <route edges="-E1 E3" />
    </vehicle>
    <vehicle id="173" depart="259.50">
        <route edges="E2 E0" />
    </vehicle>
    <vehicle id="174" depart="261.00">
        <route edges="-E3 E0" />
    </vehicle>
    <vehicle id="175" depart="262.50">
        <route edges="E2 E1" />
    </vehicle>
    <vehicle id="178" depart="267.00">
        <route edges="E2 E0" />
    </vehicle>
    <vehicle id="180" depart="270.00">
        <route edges="-E3 E0" />
    </vehicle>
    <vehicle id="181" depart="271.50">
        <route edges="-E3 E1" />
    </vehicle>
    <vehicle id="185" depart="277.50">
        <route edges="-E3 E1" />
    </vehicle>
    <vehicle id="186" depart="279.00">
        <route edges="-E3 E1" />
    </vehicle>
    <vehicle id="187" depart="280.50">
        <route edges="-E1 -E2" />
    </vehicle>
    <vehicle id="188" depart="282.00">
        <route edges="-E3 E0" />
    </vehicle>
    <vehicle id="189" depart="283.50">
        <route edges="-E1 E3" />
    </vehicle>
    <vehicle id="190" depart="285.00">
        <route edges="-E3 E0" />
    </vehicle>
    <vehicle id="191" depart="286.50">
        <route edges="-E1 E0" />
    </vehicle>
    <vehicle id="192" depart="288.00">
        <route edges="-E1 E0" />
    </vehicle>
    <vehicle id="194" depart="291.00">
        <route edges="E2 E1" />
    </vehicle>
    <vehicle id="195" depart="292.50">
        <route edges="E2 E1" />
    </vehicle>
    <vehicle id="199" depart="298.50">
        <route edges="-E3 E0" />
    </vehicle>
    <vehicle id="200" depart="300.00">
        <route edges="-E1 -E2" />
    </vehicle>
    <vehicle id="201" depart="301.50">
        <route edges="-E1 E3" />
    </vehicle>
    <vehicle id="204" depart="306.00">
        <route edges="-E3 E0" />
    </vehicle>
    <vehicle id="205" depart="307.50">
        <route edges="E2 E3" />
    </vehicle>
    <vehicle id="206" depart="309.00">
        <route edges="-E3 -E2" />
    </vehicle>
    <vehicle id="212" depart="318.00">
        <route edges="-E1 -E2" />
    </vehicle>
    <vehicle id="213" depart="319.50">
        <route edges="-E3 -E2" />
    </vehicle>
    <vehicle id="214" depart="321.00">
        <route edges="E2 E3" />
    </vehicle>
    <vehicle id="217" depart="325.50">
        <route edges="-E3 -E2" />
    </vehicle>
    <vehicle id="219" depart="328.50">
        <route edges="-E1 E3" />
    </vehicle>
    <vehicle id="222" depart="333.00">
        <route edges="E2 E1" />
    </vehicle>
    <vehicle id="223" depart="334.50">
        <route edges="-E3 E1" />
    </vehicle>
    <vehicle id="224" depart="336.00">
        <route edges="E2 E1" />
    </vehicle>
    <vehicle id="225" depart="337.50">
        <route edges="E2 E1" />
    </vehicle>
    <vehicle id="226" depart="339.00">
        <route edges="-E1 E0" />
    </vehicle>
    <vehicle id="228" depart="342.00">
        <route edges="E2 E1" />
    </vehicle>
    <vehicle id="229" depart="343.50">
        <route edges="-E3 E0" />
    </vehicle>
    <vehicle id="231" depart="346.50">
        <route edges="-E1 E0" />
    </vehicle>
    <vehicle id="232" depart="348.00">
        <route edges="-E3 -E2" />
    </vehicle>
    <vehicle id="234" depart="351.00">
        <route edges="-E3 -E2" />
    </vehicle>
    <vehicle id="236" depart="354.00">
        <route edges="-E1 -E2" />
    </vehicle>
    <vehicle id="237" depart="355.50">
        <route edges="-E1 E3" />
    </vehicle>
    <vehicle id="238" depart="357.00">
        <route edges="-E3 E1" />
    </vehicle>
    <vehicle id="239" depart="358.50">
        <route edges="E2 E3" />
    </vehicle>
    <vehicle id="240" depart="360.00">
        <route edges="-E1 -E2" />
    </vehicle>
    <vehicle id="241" depart="361.50">
        <route edges="-E1 E3" />
    </vehicle>
    <vehicle id="242" depart="363.00">
        <route edges="E2 E3" />
    </vehicle>
    <vehicle id="244" depart="366.00">
        <route edges="-E3 E1" />
    </vehicle>
    <vehicle id="246" depart="369.00">
        <route edges="-E1 -E2" />
    </vehicle>
    <vehicle id="248" depart="372.00">
        <route edges="-E1 -E2" />
    </vehicle>
    <vehicle id="249" depart="373.50">
        <route edges="-E1 -E2" />
    </vehicle>
    <vehicle id="250" depart="375.00">
        <route edges="-E3 -E2" />
    </vehicle>
    <vehicle id="256" depart="384.00">
        <route edges="E2 E0" />
    </vehicle>
    <vehicle id="257" depart="385.50">
        <route edges="E2 E3" />
    </vehicle>
    <vehicle id="258" depart="387.00">
        <route edges="-E1 -E2" />
    </vehicle>
    <vehicle id="260" depart="390.00">
        <route edges="E2 E0" />
    </vehicle>
    <vehicle id="266" depart="399.00">
        <route edges="-E3 -E2" />
    </vehicle>
    <vehicle id="269" depart="403.50">
        <route edges="-E3 -E2" />
    </vehicle>
    <vehicle id="270" depart="405.00">
        <route edges="E2 E3" />
    </vehicle>
    <vehicle id="271" depart="406.50">
        <route edges="-E0 -E2" />
    </vehicle>
    <vehicle id="273" depart="409.50">
        <route edges="E2 E0" />
    </vehicle>
    <vehicle id="274" depart="411.00">
        <route edges="-E3 -E2" />
    </vehicle>
    <vehicle id="275" depart="412.50">
        <route edges="-E3 E1" />
    </vehicle>
    <vehicle id="277" depart="415.50">
        <route edges="E2 E1" />
    </vehicle>
    <vehicle id="279" depart="418.50">
        <route edges="E2 E0" />
    </vehicle>
    <vehicle id="280" depart="420.00">
        <route edges="-E1 E0" />
    </vehicle>
    <vehicle id="281" depart="421.50">
        <route edges="-E3 E0" />
    </vehicle>
    <vehicle id="282" depart="423.00">
        <route edges="E2 E3" />
    </vehicle>
    <vehicle id="285" depart="427.50">
        <route edges="-E3 E0" />
    </vehicle>
    <vehicle id="287" depart="430.50">
        <route edges="-E1 E3" />
    </vehicle>
    <vehicle id="288" depart="432.00">
        <route edges="-E3 E0" />
    </vehicle>
    <vehicle id="290" depart="435.00">
        <route edges="-E1 E3" />
    </vehicle>
    <vehicle id="294" depart="441.00">
        <route edges="-E1 -E2" />
    </vehicle>
    <vehicle id="297" depart="445.50">
        <route edges="-E1 E3" />
    </vehicle>
    <vehicle id="298" depart="447.00">
        <route edges="-E3 E0" />
    </vehicle>
    <vehicle id="301" depart="451.50">
        <route edges="-E1 E3" />
    </vehicle>
    <vehicle id="302" depart="453.00">
        <route edges="-E3 E1" />
    </vehicle>
    <vehicle id="303" depart="454.50">
        <route edges="-E1 E3" />
    </vehicle>
    <vehicle id="305" depart="457.50">
        <route edges="-E3 E0" />
    </vehicle>
    <vehicle id="306" depart="459.00">
        <route edges="-E3 E0" />
    </vehicle>
    <vehicle id="307" depart="460.50">
        <route edges="-E3 E0" />
    </vehicle>
    <vehicle id="308" depart="462.00">
        <route edges="-E3 E0" />
    </vehicle>
    <vehicle id="309" depart="463.50">
        <route edges="-E3 E0" />
    </vehicle>
    <vehicle id="310" depart="465.00">
        <route edges="-E1 -E2" />
    </vehicle>
    <vehicle id="315" depart="472.50">
        <route edges="E2 E1" />
    </vehicle>
    <vehicle id="316" depart="474.00">
        <route edges="-E1 -E2" />
    </vehicle>
    <vehicle id="319" depart="478.50">
        <route edges="-E3 E0" />
    </vehicle>
    <vehicle id="320" depart="480.00">
        <route edges="E2 E1" />
    </vehicle>
    <vehicle id="321" depart="481.50">
        <route edges="-E3 -E2" />
    </vehicle>
    <vehicle id="322" depart="483.00">
        <route edges="E2 E0" />
    </vehicle>
    <vehicle id="323" depart="484.50">
        <route edges="E2 E1" />
    </vehicle>
    <vehicle id="324" depart="486.00">
        <route edges="-E1 E0" />
    </vehicle>
    <vehicle id="326" depart="489.00">
        <route edges="E2 E0" />
    </vehicle>
    <vehicle id="327" depart="490.50">
        <route edges="E2 E0" />
    </vehicle>
    <vehicle id="330" depart="495.00">
        <route edges="-E3 E0" />
    </vehicle>
    <vehicle id="332" depart="498.00">
        <route edges="E2 E1" />
    </vehicle>
    <vehicle id="334" depart="501.00">
        <route edges="-E3 E0" />
    </vehicle>
    <vehicle id="335" depart="502.50">
        <route edges="-E1 E3" />
    </vehicle>
    <vehicle id="336" depart="504.00">
        <route edges="E2 E0" />
    </vehicle>
    <vehicle id="337" depart="505.50">
        <route edges="-E3 E1" />
    </vehicle>
    <vehicle id="340" depart="510.00">
        <route edges="-E3 -E2" />
    </vehicle>
    <vehicle id="343" depart="514.50">
        <route edges="-E3 E0" />
    </vehicle>
    <vehicle id="345" depart="517.50">
        <route edges="-E3 E0" />
    </vehicle>
    <vehicle id="347" depart="520.50">
        <route edges="E2 E1" />
    </vehicle>
    <vehicle id="353" depart="529.50">
        <route edges="-E3 E1" />
    </vehicle>
    <vehicle id="354" depart="531.00">
        <route edges="-E1 -E2" />
    </vehicle>
    <vehicle id="355" depart="532.50">
        <route edges="-E3 E1" />
    </vehicle>
    <vehicle id="356" depart="534.00">
        <route edges="E2 E1" />
    </vehicle>
    <vehicle id="357" depart="535.50">
        <route edges="-E1 -E2" />
    </vehicle>
    <vehicle id="359" depart="538.50">
        <route edges="-E1 E0" />
    </vehicle>
    <vehicle id="361" depart="541.50">
        <route edges="E2 E1" />
    </vehicle>
    <vehicle id="362" depart="543.00">
        <route edges="E2 E3" />
    </vehicle>
    <vehicle id="363" depart="544.50">
        <route edges="-E3 E0" />
    </vehicle>
    <vehicle id="367" depart="550.50">
        <route edges="-E3 E1" />
    </vehicle>
    <vehicle id="368" depart="552.00">
        <route edges="-E1 -E2" />
    </vehicle>
    <vehicle id="369" depart="553.50">
        <route edges="-E1 E0" />
    </vehicle>
    <vehicle id="372" depart="558.00">
        <route edges="-E1 E3" />
    </vehicle>
    <vehicle id="373" depart="559.50">
        <route edges="E2 E1" />
    </vehicle>
    <vehicle id="374" depart="561.00">
        <route edges="-E1 E0" />
    </vehicle>
    <vehicle id="375" depart="562.50">
        <route edges="-E1 E3" />
    </vehicle>
    <vehicle id="377" depart="565.50">
        <route edges="E2 E1" />
    </vehicle>
    <vehicle id="378" depart="567.00">
        <route edges="-E3 E0" />
    </vehicle>
    <vehicle id="380" depart="570.00">
        <route edges="E2 E1" />
    </vehicle>
    <vehicle id="385" depart="577.50">
        <route edges="-E3 -E2" />
    </vehicle>
    <vehicle id="387" depart="580.50">
        <route edges="-E3 -E2" />
    </vehicle>
    <vehicle id="388" depart="582.00">
        <route edges="E2 E3" />
    </vehicle>
    <vehicle id="389" depart="583.50">
        <route edges="-E1 -E2" />
    </vehicle>
    <vehicle id="390" depart="585.00">
        <route edges="E2 E0" />
    </vehicle>
    <vehicle id="391" depart="586.50">
        <route edges="-E3 E1" />
    </vehicle>
    <vehicle id="392" depart="588.00">
        <route edges="-E1 E3" />
    </vehicle>
    <vehicle id="394" depart="591.00">
        <route edges="-E3 E0" />
    </vehicle>
    <vehicle id="395" depart="592.50">
        <route edges="E2 E1" />
    </vehicle>
    <vehicle id="396" depart="594.00">
        <route edges="E2 E3" />
    </vehicle>
    <vehicle id="397" depart="595.50">
        <route edges="-E1 E3" />
    </vehicle>
    <vehicle id="398" depart="597.00">
        <route edges="-E1 E3" />
    </vehicle>
    <vehicle id="400" depart="600.00">
        <route edges="-E1 E0" />
    </vehicle>
    <vehicle id="402" depart="603.00">
        <route edges="-E1 -E2" />
    </vehicle>
    <vehicle id="403" depart="604.50">
        <route edges="-E3 E0" />
    </vehicle>
    <vehicle id="404" depart="606.00">
        <route edges="-E3 E1" />
    </vehicle>
    <vehicle id="405" depart="607.50">
        <route edges="-E1 E0" />
    </vehicle>
    <vehicle id="407" depart="610.50">
        <route edges="-E3 -E2" />
    </vehicle>
    <vehicle id="409" depart="613.50">
        <route edges="-E3 E1" />
    </vehicle>
    <vehicle id="410" depart="615.00">
        <route edges="E2 E0" />
    </vehicle>
    <vehicle id="412" depart="618.00">
        <route edges="E2 E0" />
    </vehicle>
    <vehicle id="415" depart="622.50">
        <route edges="E2 E0" />
    </vehicle>
    <vehicle id="416" depart="624.00">
        <route edges="-E3 E0" />
    </vehicle>
    <vehicle id="417" depart="625.50">
        <route edges="-E3 E0" />
    </vehicle>
    <vehicle id="418" depart="627.00">
        <route edges="-E3 -E2" />
    </vehicle>
    <vehicle id="419" depart="628.50">
        <route edges="-E1 E3" />
    </vehicle>
    <vehicle id="422" depart="633.00">
        <route edges="E2 E3" />
    </vehicle>
    <vehicle id="423" depart="634.50">
        <route edges="-E1 E0" />
    </vehicle>
    <vehicle id="427" depart="640.50">
        <route edges="E2 E3" />
    </vehicle>
    <vehicle id="428" depart="642.00">
        <route edges="-E3 E0" />
    </vehicle>
    <vehicle id="429" depart="643.50">
        <route edges="-E0 E1" />
    </vehicle>
    <vehicle id="430" depart="645.00">
        <route edges="E2 E0" />
    </vehicle>
    <vehicle id="433" depart="649.50">
        <route edges="-E1 E0" />
    </vehicle>
    <vehicle id="437" depart="655.50">
        <route edges="E2 E1" />
    </vehicle>
    <vehicle id="440" depart="660.00">
        <route edges="-E1 E0" />
    </vehicle>
    <vehicle id="442" depart="663.00">
        <route edges="E2 E1" />
    </vehicle>
    <vehicle id="445" depart="667.50">
        <route edges="-E3 E0" />
    </vehicle>
    <vehicle id="446" depart="669.00">
        <route edges="-E1 E3" />
    </vehicle>
    <vehicle id="448" depart="672.00">
        <route edges="-E1 -E2" />
    </vehicle>
    <vehicle id="449" depart="673.50">
        <route edges="-E3 E1" />
    </vehicle>
    <vehicle id="450" depart="675.00">
        <route edges="E2 E0" />
    </vehicle>
    <vehicle id="451" depart="676.50">
        <route edges="E2 E1" />
    </vehicle>
    <vehicle id="453" depart="679.50">
        <route edges="-E3 E1" />
    </vehicle>
    <vehicle id="455" depart="682.50">
        <route edges="-E1 E3" />
    </vehicle>
    <vehicle id="456" depart="684.00">
        <route edges="-E1 E3" />
    </vehicle>
    <vehicle id="457" depart="685.50">
        <route edges="-E3 E0" />
    </vehicle>
    <vehicle id="458" depart="687.00">
        <route edges="-E3 E1" />
    </vehicle>
    <vehicle id="459" depart="688.50">
        <route edges="-E3 E1" />
    </vehicle>
    <vehicle id="462" depart="693.00">
        <route edges="-E3 E0" />
    </vehicle>
    <vehicle id="464" depart="696.00">
        <route edges="-E3 -E2" />
    </vehicle>
    <vehicle id="469" depart="703.50">
        <route edges="E2 E0" />
    </vehicle>
    <vehicle id="470" depart="705.00">
        <route edges="E2 E0" />
    </vehicle>
    <vehicle id="471" depart="706.50">
        <route edges="E2 E1" />
    </vehicle>
    <vehicle id="472" depart="708.00">
        <route edges="-E1 -E2" />
    </vehicle>
    <vehicle id="474" depart="711.00">
        <route edges="E2 E3" />
    </vehicle>
    <vehicle id="476" depart="714.00">
        <route edges="E2 E3" />
    </vehicle>
    <vehicle id="477" depart="715.50">
        <route edges="-E1 E3" />
    </vehicle>
    <vehicle id="480" depart="720.00">
        <route edges="-E3 E1" />
    </vehicle>
    <vehicle id="481" depart="721.50">
        <route edges="E2 E3" />
    </vehicle>
    <vehicle id="486" depart="729.00">
        <route edges="E2 E3" />
    </vehicle>
    <vehicle id="487" depart="730.50">
        <route edges="-E1 E0" />
    </vehicle>
    <vehicle id="489" depart="733.50">
        <route edges="-E1 E0" />
    </vehicle>
    <vehicle id="492" depart="738.00">
        <route edges="-E3 E1" />
    </vehicle>
    <vehicle id="493" depart="739.50">
        <route edges="E2 E0" />
    </vehicle>
    <vehicle id="494" depart="741.00">
        <route edges="-E3 -E2" />
    </vehicle>
    <vehicle id="495" depart="742.50">
        <route edges="-E1 -E2" />
    </vehicle>
    <vehicle id="496" depart="744.00">
        <route edges="-E1 E0" />
    </vehicle>
    <vehicle id="498" depart="747.00">
        <route edges="-E1 E0" />
    </vehicle>
    <vehicle id="499" depart="748.50">
        <route edges="E2 E3" />
    </vehicle>
    <vehicle id="502" depart="753.00">
        <route edges="-E1 E0" />
    </vehicle>
    <vehicle id="504" depart="756.00">
        <route edges="E2 E0" />
    </vehicle>
    <vehicle id="505" depart="757.50">
        <route edges="-E3 E1" />
    </vehicle>
    <vehicle id="506" depart="759.00">
        <route edges="-E3 -E2" />
    </vehicle>
    <vehicle id="511" depart="766.50">
        <route edges="E2 E0" />
    </vehicle>
    <vehicle id="515" depart="772.50">
        <route edges="-E1 -E2" />
    </vehicle>
    <vehicle id="516" depart="774.00">
        <route edges="-E3 -E2" />
    </vehicle>
    <vehicle id="520" depart="780.00">
        <route edges="-E3 E1" />
    </vehicle>
    <vehicle id="521" depart="781.50">
        <route edges="-E3 E0" />
    </vehicle>
    <vehicle id="522" depart="783.00">
        <route edges="E2 E1" />
    </vehicle>
    <vehicle id="525" depart="787.50">
        <route edges="E2 E3" />
    </vehicle>
    <vehicle id="526" depart="789.00">
        <route edges="-E3 E0" />
    </vehicle>
    <vehicle id="528" depart="792.00">
        <route edges="-E1 E0" />
    </vehicle>
    <vehicle id="529" depart="793.50">
        <route edges="-E3 E0" />
    </vehicle>
    <vehicle id="531" depart="796.50">
        <route edges="-E0 E1" />
    </vehicle>
    <vehicle id="533" depart="799.50">
        <route edges="-E3 E1" />
    </vehicle>
    <vehicle id="534" depart="801.00">
        <route edges="-E1 E3" />
    </vehicle>
    <vehicle id="535" depart="802.50">
        <route edges="-E3 E0" />
    </vehicle>
    <vehicle id="536" depart="804.00">
        <route edges="-E3 -E2" />
    </vehicle>
    <vehicle id="539" depart="808.50">
        <route edges="-E3 -E2" />
    </vehicle>
    <vehicle id="540" depart="810.00">
        <route edges="-E1 -E2" />
    </vehicle>
    <vehicle id="541" depart="811.50">
        <route edges="-E1 E0" />
    </vehicle>
    <vehicle id="542" depart="813.00">
        <route edges="-E1 -E2" />
    </vehicle>
    <vehicle id="544" depart="816.00">
        <route edges="-E1 -E2" />
    </vehicle>
    <vehicle id="548" depart="822.00">
        <route edges="E2 E1" />
    </vehicle>
    <vehicle id="549" depart="823.50">
        <route edges="-E3 E1" />
    </vehicle>
    <vehicle id="550" depart="825.00">
        <route edges="-E1 -E2" />
    </vehicle>
    <vehicle id="552" depart="828.00">
        <route edges="E2 E3" />
    </vehicle>
    <vehicle id="554" depart="831.00">
        <route edges="-E3 E0" />
    </vehicle>
    <vehicle id="555" depart="832.50">
        <route edges="-E3 -E2" />
    </vehicle>
    <vehicle id="556" depart="834.00">
        <route edges="-E3 -E2" />
    </vehicle>
    <vehicle id="558" depart="837.00">
        <route edges="-E1 E3" />
    </vehicle>
    <vehicle id="560" depart="840.00">
        <route edges="E2 E3" />
    </vehicle>
    <vehicle id="561" depart="841.50">
        <route edges="E2 E1" />
    </vehicle>
    <vehicle id="562" depart="843.00">
        <route edges="-E3 -E2" />
    </vehicle>
    <vehicle id="563" depart="844.50">
        <route edges="E2 E3" />
    </vehicle>
    <vehicle id="564" depart="846.00">
        <route edges="-E1 -E2" />
    </vehicle>
    <vehicle id="565" depart="847.50">
        <route edges="-E3 E0" />
    </vehicle>
    <vehicle id="566" depart="849.00">
        <route edges="-E1 -E2" />
    </vehicle>
    <vehicle id="567" depart="850.50">
        <route edges="E2 E1" />
    </vehicle>
    <vehicle id="568" depart="852.00">
        <route edges="-E1 -E2" />
    </vehicle>
    <vehicle id="569" depart="853.50">
        <route edges="-E3 -E2" />
    </vehicle>
    <vehicle id="570" depart="855.00">
        <route edges="-E3 -E2" />
    </vehicle>
    <vehicle id="571" depart="856.50">
        <route edges="-E1 E0" />
    </vehicle>
    <vehicle id="573" depart="859.50">
        <route edges="E2 E1" />
    </vehicle>
    <vehicle id="576" depart="864.00">
        <route edges="-E3 E0" />
    </vehicle>
    <vehicle id="577" depart="865.50">
        <route edges="-E3 E0" />
    </vehicle>
    <vehicle id="578" depart="867.00">
        <route edges="-E1 E0" />
    </vehicle>
    <vehicle id="580" depart="870.00">
        <route edges="-E1 E0" />
    </vehicle>